8
-11.55687046411
  C  1.28337261  0.00857692 -0.00005918
  H  1.81662901  0.34718782  0.88228426
  H  1.27545139 -1.07998289 -0.00005438
  H  1.81650040  0.34718803 -0.88248146
  C -0.15920549  0.50204794  0.00004613
  H -0.40002806  1.08661098  0.89390173
  H -0.40016296  1.08658136 -0.89379574
  F -1.03585971 -0.55904840  0.00013873
8
-11.55673365231
  C  1.27128262  0.01225351 -0.00005847
  H  1.81144819  0.34090680  0.88325791
  H  1.24981888 -1.07336975 -0.00005465
  H  1.81131564  0.34090333 -0.88345729
  C -0.16938354  0.51576461  0.00004839
  H -0.41511085  1.09563849  0.89439134
  H -0.41525455  1.09560463 -0.89427702
  F -1.01827125 -0.57068620  0.00013654
8
-11.55649473774
  C  1.26970981  0.01306125 -0.00005837
  H  1.81379303  0.33190991  0.88364413
  H  1.23312393 -1.08183957 -0.00005286
  H  1.81366029  0.33190531 -0.88384401
  C -0.16702103  0.52404891  0.00004812
  H -0.41588382  1.10052890  0.89475147
  H -0.41602740  1.10049548 -0.89463680
  F -1.01805155 -0.57554902  0.00013656
8
-11.55623850629
  C  1.26970103  0.01159000 -0.00005838
  H  1.81603143  0.32642339  0.88402186
  H  1.22218022 -1.06340899 -0.00005134
  H  1.81589882  0.32641913 -0.88422249
  C -0.16558541  0.52878605  0.00004796
  H -0.41597138  1.10334556  0.89517986
  H -0.41611476  1.10331250 -0.89506534
  F -1.01860122 -0.57830826  0.00013663
8
-11.55447721917
  C  1.26798302  0.01306649 -0.00005822
  H  1.82256053  0.31027257  0.88482997
  H  1.19356927 -1.07007622 -0.00004891
  H  1.82242798  0.31026663 -0.88503153
  C -0.15439859  0.55219913  0.00004672
  H -0.41287163  1.11714969  0.89666903
  H -0.41301554  1.11711641 -0.89655516
  F -1.02409111 -0.59344050  0.00013728
8
-11.55107580505
  C  1.26692303  0.01414439 -0.00005814
  H  1.82839441  0.29535969  0.88573938
  H  1.16673856 -1.06875864 -0.00004651
  H  1.82826198  0.29535280 -0.88594180
  C -0.14082789  0.57691854  0.00004524
  H -0.40810240  1.13106452  0.89856407
  H -0.40824662  1.13103118 -0.89845130
  F -1.03170191 -0.60971338  0.00013814
8
-11.5463780838
  C  1.26565501  0.01511527 -0.00005805
  H  1.83314408  0.28122981  0.88667484
  H  1.14164636 -1.06590369 -0.00004430
  H  1.83301175  0.28122215 -0.88687792
  C -0.12606839  0.60243012  0.00004365
  H -0.40237382  1.14528075  0.90064430
  H -0.40251838  1.14524728 -0.90053287
  F -1.04001173 -0.62661605  0.00013907
8
-11.54075160007
  C  1.26401360  0.01600163 -0.00005791
  H  1.83688251  0.26744569  0.88764035
  H  1.11745789 -1.06250555 -0.00004220
  H  1.83675022  0.26743734 -0.88784393
  C -0.11072860  0.62830403  0.00004199
  H -0.39597194  1.15979670  0.90277425
  H -0.39611685  1.15976308 -0.90266429
  F -1.04846443 -0.64379166  0.00014003
8
-11.53451182629
  C  1.26193638  0.01680404 -0.00005774
  H  1.83968588  0.25369978  0.88864537
  H  1.09357320 -1.05876287 -0.00004017
  H  1.83955360  0.25369080 -0.88884929
  C -0.09510128  0.65433533  0.00004032
  H -0.38901470  1.17465055  0.90486799
  H -0.38915997  1.17461673 -0.90475965
  F -1.05679922 -0.66107189  0.00014098
8
-11.52797870299
  C  1.25941841  0.01751476 -0.00005754
  H  1.84158039  0.23993768  0.88968365
  H  1.06984991 -1.05475864 -0.00003816
  H  1.84144808  0.23992809 -0.88988776
  C -0.07951952  0.68011815  0.00003865
  H -0.38165332  1.18970383  0.90684802
  H -0.38179893  1.18966976 -0.90674138
  F -1.06478158 -0.67817037  0.00014189
8
-11.5213189652
  C  1.25644173  0.01814131 -0.00005729
  H  1.84261545  0.22597727  0.89075958
  H  1.04592812 -1.05048411 -0.00003616
  H  1.84248306  0.22596708 -0.89096374
  C -0.06403135  0.70564810  0.00003700
  H -0.37393463  1.20499420  0.90868693
  H -0.37408055  1.20495986 -0.90858208
  F -1.07235096 -0.69507424  0.00014277
8
-11.51471037236
  C  1.25303207  0.01868887 -0.00005700
  H  1.84281763  0.21182550  0.89186527
  H  1.02177770 -1.04594517 -0.00003416
  H  1.84268510  0.21181475 -0.89206935
  C -0.04880751  0.73066996  0.00003537
  H -0.36599920  1.22035289  0.91035659
  H -0.36614541  1.22031821 -0.91025358
  F -1.07940199 -0.71160793  0.00014360
8
-11.50822380554
  C  1.24920371  0.01917464 -0.00005667
  H  1.84221942  0.19739417  0.89300127
  H  0.99720925 -1.04109630 -0.00003214
  H  1.84208669  0.19738288 -0.89320514
  C -0.03385218  0.75516763  0.00003379
  H -0.35794598  1.23569531  0.91186804
  H -0.35809243  1.23566024 -0.91176692
  F -1.08592397 -0.72775622  0.00014438
8
-11.50190626755
  C  1.24497358  0.01962303 -0.00005631
  H  1.84084223  0.18258714  0.89417152
  H  0.97202322 -1.03586620 -0.00003009
  H  1.84070923  0.18257534 -0.89437508
  C -0.01916118  0.77911990  0.00003224
  H -0.34988629  1.25090048  0.91324147
  H -0.35003293  1.25086497 -0.91314228
  F -1.09191010 -0.74350187  0.00014511
8
-11.49579736904
  C  1.24035625  0.02006875 -0.00005591
  H  1.83869343  0.16726920  0.89538627
  H  0.94595131 -1.03014017 -0.00002799
  H  1.83856008  0.16725694 -0.89558941
  C -0.00472987  0.80249617  0.00003072
  H -0.34193002  1.26582518  0.91449255
  H -0.34207681  1.26578914 -0.91439528
  F -1.09734742 -0.75882403  0.00014578
8
-11.48998501551
  C  1.23541937  0.02055396 -0.00005548
  H  1.83579444  0.15142766  0.89664903
  H  0.91892399 -1.02381219 -0.00002585
  H  1.83566063  0.15141498 -0.89685166
  C  0.00930609  0.82502711  0.00002925
  H -0.33426701  1.28015677  0.91562175
  H -0.33441386  1.28012014 -0.91552639
  F -1.10217139 -0.77355018  0.00014640
8
-11.48449253109
  C  1.23020832  0.02113554 -0.00005502
  H  1.83214436  0.13491937  0.89797570
  H  0.89062228 -1.01668946 -0.00002363
  H  1.83200997  0.13490636 -0.89817772
  C  0.02292783  0.84661993  0.00002784
  H -0.32702631  1.29368055  0.91663904
  H -0.32717313  1.29364323 -0.91654555
  F -1.10636804 -0.78762989  0.00014695
8
-11.47936246471
  C  1.22481587  0.02187385 -0.00005453
  H  1.82775736  0.11771562  0.89937356
  H  0.86087304 -1.00858003 -0.00002135
  H  1.82762227  0.11770238 -0.89957490
  C  0.03603078  0.86703555  0.00002650
  H -0.32037540  1.30608930  0.91754560
  H -0.32052208  1.30605120 -0.91745393
  F -1.10990445 -0.80092470  0.00014743
8
-11.47460303052
  C  1.21933289  0.02283139 -0.00005403
  H  1.82263644  0.09978202  0.90084841
  H  0.82941369 -0.99924669 -0.00001898
  H  1.82250046  0.09976868 -0.90104901
  C  0.04855799  0.88610439  0.00002522
  H -0.31443492  1.31713911  0.91834271
  H -0.31458133  1.31710013 -0.91825276
  F -1.11277567 -0.81334998  0.00014785
8
-11.47024561412
  C  1.21390716  0.02404887 -0.00005352
  H  1.81684417  0.08133028  0.90237893
  H  0.79631232 -0.98855106 -0.00001653
  H  1.81670713  0.08131702 -0.90257875
  C  0.06035351  0.90351542  0.00002404
  H -0.30932883  1.32655617  0.91902031
  H -0.30947483  1.32651623 -0.91893198
  F -1.11497362 -0.82473557  0.00014819
8
-11.46628577719
  C  1.20866520  0.02554039 -0.00005302
  H  1.81046438  0.06263376  0.90392874
  H  0.76166427 -0.97641973 -0.00001403
  H  1.81032610  0.06262079 -0.90412777
  C  0.07132615  0.91908975  0.00002295
  H -0.30508733  1.33422683  0.91956853
  H -0.30523279  1.33418583 -0.91948171
  F -1.11653138 -0.83499817  0.00014846
8
-11.46268471523
  C  1.20368217  0.02730173 -0.00005251
  H  1.80357728  0.04395143  0.90545552
  H  0.72548109 -0.96283804 -0.00001146
  H  1.80343755  0.04393903 -0.90565378
  C  0.08148101  0.93281444  0.00002195
  H -0.30165561  1.34019882  0.91998060
  H -0.30180041  1.34015669 -0.91989520
  F -1.11751465 -0.84416023  0.00014867
8
-11.45940241122
  C  1.19900451  0.02930706 -0.00005200
  H  1.79628737  0.02557660  0.90690993
  H  0.68781777 -0.94792959 -0.00000885
  H  1.79614598  0.02556510 -0.90710751
  C  0.09084954  0.94474722  0.00002103
  H -0.29893683  1.34461335  0.92025171
  H -0.29908085  1.34457000 -0.92016764
  F -1.11799693 -0.85228148  0.00014883
8
-11.45642120143
  C  1.19467335  0.03151205 -0.00005149
  H  1.78875550  0.00788130  0.90823951
  H  0.64893020 -0.93206589 -0.00000621
  H  1.78861218  0.00787110 -0.90843651
  C  0.09944458  0.95495328  0.00002019
  H -0.29682463  1.34765576  0.92038022
  H -0.29696781  1.34761112 -0.92029744
  F -1.11805426 -0.85941453  0.00014893
8
-11.4537087227
  C  1.19066899  0.03389764 -0.00005095
  H  1.78107929 -0.00898573  0.90941675
  H  0.60865337 -0.91564816 -0.00000357
  H  1.78093371 -0.00899409 -0.90961339
  C  0.10737783  0.96363976  0.00001940
  H -0.29518965  1.34956957  0.92037227
  H -0.29533189  1.34952354 -0.92029078
  F -1.11776015 -0.86569863  0.00014900
8
-11.4512821009
  C  1.18700992  0.03643519 -0.00005035
  H  1.77343220 -0.02476827  0.91041697
  H  0.56713563 -0.89940606 -0.00000098
  H  1.77328389 -0.02477404 -0.91061355
  C  0.11467696  0.97092978  0.00001864
  H -0.29393357  1.35056599  0.92023855
  H -0.29407485  1.35051844 -0.92015840
  F -1.11718047 -0.87120441  0.00014903
8
-11.44914848182
  C  1.18366602  0.03914504 -0.00004965
  H  1.76587085 -0.03950713  0.91124497
  H  0.52389876 -0.88389927  0.00000149
  H  1.76571896 -0.03950913 -0.91144202
  C  0.12146604  0.97704526  0.00001788
  H -0.29295850  1.35084553  0.91999234
  H -0.29309880  1.35079626 -0.91991366
  F -1.11636562 -0.87607230  0.00014904
8
-11.44738423454
  C  1.18065325  0.04199243 -0.00004872
  H  1.75855739 -0.05307261  0.91190574
  H  0.47942749 -0.86957590  0.00000357
  H  1.75840035 -0.05306868 -0.91210419
  C  0.12773799  0.98206989  0.00001704
  H -0.29220742  1.35055476  0.91965112
  H -0.29234684  1.35050346 -0.91957422
  F -1.11537014 -0.88033882  0.00014904
8
-11.44605671058
  C  1.17788102  0.04499716 -0.00004716
  H  1.75147861 -0.06560373  0.91243241
  H  0.43335873 -0.85549456  0.00000426
  H  1.75131190 -0.06558896 -0.91263379
  C  0.13361465  0.98603784  0.00001593
  H -0.29162149  1.34975694  0.91919804
  H -0.29176097  1.34970339 -0.91912420
  F -1.11419915 -0.88408013  0.00014904
8
-11.44519336332
  C  1.17533831  0.05035295 -0.00004680
  H  1.74236699 -0.08031493  0.91296719
  H  0.35372057 -0.84902928  0.00000808
  H  1.74219966 -0.08030210 -0.91316667
  C  0.14114263  0.98984277  0.00001525
  H -0.29076930  1.34834485  0.91839476
  H -0.29090963  1.34829027 -0.91832074
  F -1.11224923 -0.88850354  0.00014893
8
-11.44628811315
  C  1.17279560  0.05570874 -0.00004644
  H  1.73325537 -0.09502613  0.91350197
  H  0.27408241 -0.84256400  0.00001190
  H  1.73308742 -0.09501524 -0.91369955
  C  0.14867061  0.99364770  0.00001457
  H -0.28991711  1.34693276  0.91759148
  H -0.29005829  1.34687715 -0.91751728
  F -1.11029931 -0.89292695  0.00014882
8
-11.44815076321
  C  1.17201025  0.05908442 -0.00004734
  H  1.72853088 -0.10220019  0.91356410
  H  0.22310046 -0.84350474  0.00002017
  H  1.72836948 -0.10219696 -0.91375871
  C  0.15252331  0.99509504  0.00001465
  H -0.28930797  1.34623827  0.91711900
  H -0.28944830  1.34618485 -0.91704287
  F -1.10909740 -0.89509092  0.00014864
8
-11.45095179439
  C  1.17152941  0.06248386 -0.00004782
  H  1.72426372 -0.10866491  0.91368988
  H  0.17184726 -0.84553946  0.00002674
  H  1.72410517 -0.10866575 -0.91388222
  C  0.15602155  0.99608249  0.00001454
  H -0.28867914  1.34555092  0.91663672
  H -0.28881918  1.34549925 -0.91655972
  F -1.10789991 -0.89699733  0.00014850
8
-11.45463965448
  C  1.17128148  0.06585717 -0.00004813
  H  1.72030615 -0.11462349  0.91380756
  H  0.12063299 -0.84813258  0.00003255
  H  1.72014929 -0.11462707 -0.91399818
  C  0.15924369  0.99677665  0.00001437
  H -0.28801490  1.34490722  0.91615859
  H -0.28815475  1.34485694 -0.91608099
  F -1.10671373 -0.89873056  0.00014837
8
-11.45909030809
  C  1.17120973  0.06921707 -0.00004837
  H  1.71654192 -0.12024715  0.91390011
  H  0.06926287 -0.85093383  0.00003801
  H  1.71638623 -0.12025285 -0.91408930
  C  0.16227012  0.99726021  0.00001419
  H -0.28728712  1.34432270  0.91568169
  H -0.28742682  1.34427358 -0.91560366
  F -1.10553415 -0.90035297  0.00014825
8
-11.46405791162
  C  1.17126445  0.07262031 -0.00004858
  H  1.71282913 -0.12574872  0.91396414
  H  0.01777507 -0.85367982  0.00004328
  H  1.71267436 -0.12575619 -0.91415203
  C  0.16520245  0.99759958  0.00001399
  H -0.28646003  1.34379772  0.91519767
  H -0.28659959  1.34374967 -0.91511929
  F -1.10438478 -0.90193385  0.00014814
8
-11.46919218275
  C  1.17145903  0.07625493 -0.00004878
  H  1.70894921 -0.13146353  0.91401410
  H -0.03395362 -0.85660706  0.00004846
  H  1.70879523 -0.13147266 -0.91420072
  C  0.16820300  0.99785279  0.00001378
  H -0.28546446  1.34332347  0.91468861
  H -0.28560390  1.34327646 -0.91460995
  F -1.10335431 -0.90357968  0.00014804
8
-11.47386146071
  C  1.17187625  0.08055387 -0.00004900
  H  1.70444558 -0.13807277  0.91407353
  H -0.08515427 -0.86009101  0.00005353
  H  1.70429239 -0.13808364 -0.91425872
  C  0.17160112  0.99809129  0.00001354
  H -0.28412316  1.34288881  0.91411271
  H -0.28426248  1.34284295 -0.91403378
  F -1.10271446 -0.90551594  0.00014798
8
-11.47744277137
  C  1.17297213  0.08735577 -0.00004937
  H  1.69744495 -0.14838159  0.91425813
  H -0.13366660 -0.86511140  0.00005842
  H  1.69729286 -0.14839499 -0.91444115
  C  0.17674877  0.99857793  0.00001315
  H -0.28157503  1.34252199  0.91329923
  H -0.28171423  1.34247791 -0.91321999
  F -1.10361543 -0.90872456  0.00014806
8
-11.48067998395
  C  1.17772115  0.10204435 -0.00005032
  H  1.68275588 -0.17030356  0.91504514
  H -0.16038423 -0.87398786  0.00006177
  H  1.68260594 -0.17032199 -0.91522349
  C  0.18752172  1.00147828  0.00001226
  H -0.27366335  1.34394758  0.91225090
  H -0.27380265  1.34390741 -0.91217133
  F -1.11129185 -0.91719838  0.00014878
8
-11.48360454138
  C  1.18674794  0.11690778 -0.00005161
  H  1.66912880 -0.19087679  0.91545291
  H -0.17814539 -0.88225596  0.00006431
  H  1.66898104 -0.19089998 -0.91562640
  C  0.19882864  1.00856274  0.00001120
  H -0.26089982  1.35156754  0.91245024
  H -0.26104001  1.35153140 -0.91237102
  F -1.12311287 -0.92926059  0.00014989
8
-11.48632866844
  C  1.19806439  0.13059632 -0.00005298
  H  1.66155353 -0.20425349  0.91582652
  H -0.19443881 -0.88596418  0.00006681
  H  1.66140764 -0.20428024 -0.91599667
  C  0.21106843  1.01903776  0.00000996
  H -0.24385420  1.36642758  0.91303335
  H -0.24399565  1.36639463 -0.91295565
  F -1.13814549 -0.94449732  0.00015132
8
-11.48869049639
  C  1.20901893  0.14212849 -0.00005419
  H  1.66086884 -0.20859486  0.91596336
  H -0.21135397 -0.88145116  0.00006931
  H  1.66072421 -0.20862351 -0.91613226
  C  0.22386572  1.03087337  0.00000865
  H -0.22523312  1.38472331  0.91338884
  H -0.22537553  1.38469222 -0.91331366
  F -1.15416708 -0.96099041  0.00015284
8
-11.49066784824
  C  1.21868346  0.15157081 -0.00005519
  H  1.66437410 -0.20718635  0.91590725
  H -0.22933550 -0.86789855  0.00007167
  H  1.66423019 -0.20721565 -0.91607633
  C  0.23641479  1.04267563  0.00000739
  H -0.20742410  1.40267771  0.91358525
  H -0.20756700  1.40264756 -0.91351298
  F -1.16951804 -0.97719474  0.00015431
8
-11.49232460628
  C  1.22717947  0.15947430 -0.00005605
  H  1.66938888 -0.20359897  0.91573091
  H -0.24846625 -0.84652038  0.00007386
  H  1.66924536 -0.20362832 -0.91590077
  C  0.24824710  1.05384682  0.00000623
  H -0.19118893  1.41907075  0.91372277
  H -0.19133200  1.41904108 -0.91365340
  F -1.18360935 -0.99250795  0.00015567
8
-11.49372790127
  C  1.23475621  0.16629668 -0.00005681
  H  1.67445302 -0.19980378  0.91552319
  H -0.26875591 -0.81916640  0.00007587
  H  1.67430974 -0.19983297 -0.91569395
  C  0.25919374  1.06416774  0.00000516
  H -0.17645418  1.43391310  0.91383664
  H -0.17659725  1.43388371 -0.91377001
  F -1.19634412 -1.00677471  0.00015691
8
-11.49491972019
  C  1.24153266  0.17226872 -0.00005748
  H  1.67897654 -0.19653031  0.91533679
  H -0.29009390 -0.78802976  0.00007777
  H  1.67883342 -0.19655936 -0.91550840
  C  0.26914690  1.07350845  0.00000420
  H -0.16308057  1.44734642  0.91393803
  H -0.16322357  1.44731721 -0.91387395
  F -1.20768748 -1.01988002  0.00015802
8
-11.49596268479
  C  1.24779806  0.17770474 -0.00005810
  H  1.68293163 -0.19382205  0.91517396
  H -0.31314156 -0.75424958  0.00007963
  H  1.68278860 -0.19385103 -0.91534633
  C  0.27838638  1.08211848  0.00000331
  H -0.15051484  1.45992323  0.91403506
  H -0.15065779  1.45989413 -0.91397337
  F -1.21801981 -1.03217391  0.00015904
8
-11.49686913327
  C  1.25360108  0.18268615 -0.00005866
  H  1.68633655 -0.19161736  0.91503528
  H -0.33769393 -0.71958633  0.00008148
  H  1.68619358 -0.19164628 -0.91520829
  C  0.28689430  1.08997482  0.00000249
  H -0.13871900  1.47166195  0.91413015
  H -0.13886191  1.47163291 -0.91407073
  F -1.22737745 -1.04360842  0.00015997
8
-11.49766688807
  C  1.25912075  0.18739180 -0.00005920
  H  1.68933670 -0.18975858  0.91491746
  H -0.36402297 -0.68473900  0.00008336
  H  1.68919377 -0.18978749 -0.91509104
  C  0.29487578  1.09725939  0.00000173
  H -0.12739928  1.48283226  0.91422584
  H -0.12754218  1.48280323 -0.91416859
  F -1.23603541 -1.05441984  0.00016084
8
-11.49836969172
  C  1.26447772  0.19194177 -0.00005971
  H  1.69206895 -0.18810340  0.91481886
  H -0.39217132 -0.65037448  0.00008532
  H  1.69192603 -0.18813234 -0.91499296
  C  0.30246151  1.10408682  0.00000100
  H -0.11640072  1.49356021  0.91432380
  H -0.11654364  1.49353117 -0.91426864
  F -1.24418129 -1.06474971  0.00016165
8
-11.49898879214
  C  1.26980193  0.19645955 -0.00006022
  H  1.69468708 -0.18650247  0.91473849
  H -0.42225761 -0.61688195  0.00008739
  H  1.69454416 -0.18653147 -0.91491310
  C  0.30980436  1.11058969  0.00000030
  H -0.10556160  1.50397528  0.91442523
  H -0.10570458  1.50394618 -0.91437214
  F -1.25202106 -1.07476881  0.00016244
8
-11.49952755476
  C  1.27518369  0.20103213 -0.00006073
  H  1.69734147 -0.18480709  0.91467519
  H -0.45417949 -0.58478101  0.00008957
  H  1.69719852 -0.18483616 -0.91485032
  C  0.31700727  1.11685604 -0.00000038
  H -0.09482259  1.51410494  0.91453027
  H -0.09496563  1.51407578 -0.91447923
  F -1.25970459 -1.08457893  0.00016322
8
-11.49999020187
  C  1.28075454  0.20577910 -0.00006125
  H  1.70021143 -0.18285313  0.91462683
  H -0.48805203 -0.55442542  0.00009188
  H  1.70006845 -0.18288232 -0.91480250
  C  0.32424118  1.12302626 -0.00000106
  H -0.08405860  1.52404049  0.91463894
  H -0.08420173  1.52401124 -0.91458993
  F -1.26744929 -1.09435277  0.00016400
8
-11.50037452236
  C  1.28660877  0.21078988 -0.00006180
  H  1.70349819 -0.18045114  0.91459122
  H -0.52356975 -0.52645439  0.00009433
  H  1.70335512 -0.18048053 -0.91476753
  C  0.33160609  1.12918946 -0.00000176
  H -0.07330014  1.53372663  0.91475044
  H -0.07344340  1.53369729 -0.91470345
  F -1.27541231 -1.10418351  0.00016479
8
-11.50067983315
  C  1.29288365  0.21619055 -0.00006238
  H  1.70745580 -0.17736559  0.91456639
  H -0.56041675 -0.50141875  0.00009690
  H  1.70731264 -0.17739527 -0.91474347
  C  0.33922685  1.13546031 -0.00000247
  H -0.06258538  1.54311492  0.91486385
  H -0.06272879  1.54308544 -0.91481887
  F -1.28379903 -1.11421397  0.00016562
8
-11.50090730525
  C  1.29983446  0.22220955 -0.00006300
  H  1.71244827 -0.17327345  0.91454599
  H -0.59856053 -0.47977092  0.00009969
  H  1.71230484 -0.17330377 -0.91472410
  C  0.34729078  1.14200386 -0.00000324
  H -0.05189901  1.55221236  0.91497801
  H -0.05204262  1.55218273 -0.91493502
  F -1.29293122 -1.12470394  0.00016651
8
-11.50105602905
  C  1.30780597  0.22922019 -0.00006361
  H  1.71901696 -0.16761985  0.91451683
  H -0.63754576 -0.46220942  0.00010329
  H  1.71887248 -0.16765234 -0.91469677
  C  0.35579786  1.14887593 -0.00000410
  H -0.04153492  1.56080424  0.91508812
  H -0.04167869  1.56077446 -0.91504718
  F -1.30307722 -1.13592366  0.00016746
8
-11.50108134022
  C  1.31004827  0.23080458 -0.00006402
  H  1.72163404 -0.16453229  0.91390869
  H -0.64213556 -0.45108436  0.00010184
  H  1.72149236 -0.16455837 -0.91408635
  C  0.35716617  1.15061068 -0.00000410
  H -0.04040760  1.56184517  0.91513344
  H -0.04055127  1.56181464 -0.91509281
  F -1.30551379 -1.13905060  0.00016769